[General]
network = IoTSimulation
sim-time-limit = 100s
